Version 4.1
SHEET 1 1160 680
WIRE -368 -160 -432 -160
WIRE -224 -160 -256 -160
WIRE -112 -160 -144 -160
WIRE 32 -160 -48 -160
WIRE 336 -160 32 -160
WIRE 512 -160 336 -160
WIRE 576 -160 512 -160
WIRE 784 -160 640 -160
WIRE 816 -160 784 -160
WIRE 336 -112 336 -160
WIRE 512 -112 512 -160
WIRE -432 -48 -432 -160
WIRE 336 -16 336 -48
WIRE 512 -16 512 -48
WIRE 688 48 624 48
WIRE -432 64 -432 32
WIRE 688 64 688 48
WIRE 512 96 512 64
WIRE 624 112 624 48
WIRE 624 112 560 112
WIRE 576 160 560 160
WIRE 688 160 688 144
WIRE 688 160 576 160
WIRE 576 192 576 160
WIRE 32 224 32 -160
WIRE 64 224 32 224
WIRE 192 224 144 224
WIRE 336 224 336 64
WIRE 336 224 304 224
WIRE 512 224 512 176
WIRE 512 224 336 224
WIRE 640 224 512 224
WIRE 816 224 816 -160
WIRE 816 224 752 224
FLAG 784 -160 CK
FLAG 576 192 0
FLAG -432 64 0
SYMBOL cap 640 -176 R90
WINDOW 0 0 32 VBottom 2
WINDOW 3 32 32 VTop 2
SYMATTR InstName C1
SYMATTR Value 10µ
SYMBOL res 160 208 R90
WINDOW 0 0 56 VBottom 2
WINDOW 3 32 56 VTop 2
SYMATTR InstName R3
SYMATTR Value 100k
SYMBOL res 528 80 R180
WINDOW 0 36 76 Left 2
WINDOW 3 36 40 Left 2
SYMATTR InstName R4
SYMATTR Value 100k
SYMBOL 74hc14 240 176 R0
SYMATTR InstName U1
SYMBOL 74hc14 688 176 R0
SYMATTR InstName U2
SYMBOL diode 528 -48 R180
WINDOW 0 24 64 Left 2
WINDOW 3 -81 0 Left 2
SYMATTR InstName D1
SYMATTR Value 1N4148
SYMBOL res 352 80 R180
WINDOW 0 36 76 Left 2
WINDOW 3 36 40 Left 2
SYMATTR InstName R1
SYMATTR Value 100k
SYMBOL diode 320 -112 R0
SYMATTR InstName D2
SYMATTR Value 1N4148
SYMBOL sw 512 192 R180
SYMATTR InstName S1
SYMATTR Value MYSW
SYMBOL voltage 688 48 R0
SYMATTR InstName V1
SYMATTR Value PULSE(0 5 0 1u 1u 10 30)
SYMBOL res -240 -144 R270
WINDOW 0 32 56 VTop 2
WINDOW 3 0 56 VBottom 2
SYMATTR InstName R2
SYMATTR Value 1k
SYMBOL diode -112 -144 R270
WINDOW 0 32 32 VTop 2
WINDOW 3 0 32 VBottom 2
SYMATTR InstName D3
SYMATTR Value 1N4148
SYMBOL voltage -432 -64 R0
WINDOW 123 0 0 Left 0
WINDOW 39 0 0 Left 0
SYMATTR InstName V2
SYMATTR Value PULSE(5 0 15 1u 1u 5 30)
SYMBOL 74hc14 -320 -208 R0
SYMATTR InstName U3
TEXT 560 352 Left 2 !.tran 0 35 0 1m uic
TEXT 560 296 Left 2 !.ic V(CK)=0\n.model MYSW SW(Ron=1 Roff=1Meg Vt=.5 Vh=-.4)
